0,   100.00
IEEE Test System, 300 Buses, 69 Generators          / PSS/E-30.0    
Created by College of Electrical Engineering, Zhejiang University, Mon 27 Jun 2011 14:39:13
     1,  'Bus-1   ',  100,  1,    0,     0,     1,  1,  1.028,  5.9494,  1
     2,  'Bus-2   ',  100,  1,    0,     0,     1,  1,  1.035,  7.7367,  1
     3,  'Bus-3   ',  100,  1,    0,     0,     1,  1,  0.997,  6.6384,  1
     4,  'Bus-4   ',  100,  1,    0,     0,     1,  1,  1.030,  4.7079,  1
     5,  'Bus-5   ',  100,  1,    0,     0,     1,  1,  1.019,  4.6835,  1
     6,  'Bus-6   ',  100,  1,    0,     0,     1,  1,  1.031,  6.9878,  1
     7,  'Bus-7   ',  100,  1,    0,     0,     1,  1,  0.993,  6.1875,  1
     8,  'Bus-8   ',  100,  2,    0,     0,     1,  1,  1.015,  2.3969,  1
     9,  'Bus-9   ',  100,  1,    0,     0,     1,  1,  1.003,  2.8535,  1
    10,  'Bus-10  ',  100,  2,    0,     0,     1,  1,  1.020,  1.3467,  1
    11,  'Bus-11  ',  100,  1,    0,     0,     1,  1,  1.005,  2.4645,  1
    12,  'Bus-12  ',  100,  1,    0,     0,     1,  1,  0.997,  5.2141,  1
    13,  'Bus-13  ',  100,  1,    0,     0,     1,  1,  0.997,  -0.552,  1
    14,  'Bus-14  ',  100,  1,    0,     0,     1,  1,  0.999,  -4.814,  1
    15,  'Bus-15  ',  100,  1,    0,     0,     1,  1,  1.034,  -8.586,  1
    16,  'Bus-16  ',  100,  1,    0,     0,     1,  1,  1.031,  -2.649,  1
    17,  'Bus-17  ',  100,  1,    0,     0,     1,  1,  1.064,  -13.10,  1
    19,  'Bus-19  ',  100,  1,    0,     0,     1,  1,  0.981,  1.0808,  1
    20,  'Bus-20  ',  100,  2,    0,     0,     1,  1,  1.001,  -2.460,  1
    21,  'Bus-21  ',  100,  1,    0,     0,     1,  1,  0.975,  1.6212,  1
    22,  'Bus-22  ',  100,  1,    0,     0,     1,  1,  0.996,  -1.973,  1
    23,  'Bus-23  ',  100,  1,    0,     0,     1,  1,  1.050,  3.9380,  1
    24,  'Bus-24  ',  100,  1,    0,     0,     1,  1,  1.005,  6.0200,  1
    25,  'Bus-25  ',  100,  1,    0,     0,     1,  1,  1.023,  1.4393,  1
    26,  'Bus-26  ',  100,  1,    0,     0,     1,  1,  0.998,  -1.734,  1
    27,  'Bus-27  ',  100,  1,    0,     0,     1,  1,  0.975,  -4.896,  1
    33,  'Bus-33  ',  100,  1,    0,     0,     1,  1,  1.024,  -12.02,  1
    34,  'Bus-34  ',  100,  1,    0,     0,     1,  1,  1.041,  -7.937,  1
    35,  'Bus-35  ',  100,  1,    0,     0,     1,  1,  0.975,  -25.72,  1
    36,  'Bus-36  ',  100,  1,    0,     0,     1,  1,  1.001,  -22.59,  1
    37,  'Bus-37  ',  100,  1,    0,     0,     1,  1,  1.020,  -11.23,  1
    38,  'Bus-38  ',  100,  1,    0,     0,     1,  1,  1.020,  -12.56,  1
    39,  'Bus-39  ',  100,  1,    0,     0,     1,  1,  1.053,  -5.811,  1
    40,  'Bus-40  ',  100,  1,    0,     0,     1,  1,  1.021,  -12.77,  1
    41,  'Bus-41  ',  100,  1,    0,     0,     1,  1,  1.029,  -10.44,  1
    42,  'Bus-42  ',  100,  1,    0,     0,     1,  1,  1.044,  -7.444,  1
    43,  'Bus-43  ',  100,  1,    0,     0,     1,  1,  1.000,  -16.78,  1
    44,  'Bus-44  ',  100,  1,    0,     0,     1,  1,  1.008,  -17.46,  1
    45,  'Bus-45  ',  100,  1,    0,     0,     1,  1,  1.021,  -14.73,  1
    46,  'Bus-46  ',  100,  1,    0,     0,     1,  1,  1.034,  -11.75,  1
    47,  'Bus-47  ',  100,  1,    0,     0,     1,  1,  0.977,  -23.16,  1
    48,  'Bus-48  ',  100,  1,    0,     0,     1,  1,  1.001,  -16.09,  1
    49,  'Bus-49  ',  100,  1,    0,     0,     1,  1,  1.047,  -2.948,  1
    51,  'Bus-51  ',  100,  1,    0,     0,     1,  1,  1.025,  -8.151,  1
    52,  'Bus-52  ',  100,  1,    0,     0,     1,  1,  0.997,  -11.86,  1
    53,  'Bus-53  ',  100,  1,    0,     0,     1,  1,  0.995,  -17.60,  1
    54,  'Bus-54  ',  100,  1,    0,     0,     1,  1,  1.005,  -16.25,  1
    55,  'Bus-55  ',  100,  1,    0,     0,     1,  1,  1.015,  -12.21,  1
    57,  'Bus-57  ',  100,  1,    0,     0,     1,  1,  1.033,  -7.998,  1
    58,  'Bus-58  ',  100,  1,    0,     0,     1,  1,  0.991,  -5.992,  1
    59,  'Bus-59  ',  100,  1,    0,     0,     1,  1,  0.978,  -5.286,  1
    60,  'Bus-60  ',  100,  1,    0,     0,     1,  1,  1.024,  -9.557,  1
    61,  'Bus-61  ',  100,  1,    0,     0,     1,  1,  0.990,  -3.467,  1
    62,  'Bus-62  ',  100,  1,    0,     0,     1,  1,  1.016,  -1.097,  1
    63,  'Bus-63  ',  100,  2,    0,     0,     1,  1,  0.958,  -17.62,  1
    64,  'Bus-64  ',  100,  1,    0,     0,     1,  1,  0.947,  -12.97,  1
    69,  'Bus-69  ',  100,  1,    0,     0,     1,  1,  0.963,  -25.66,  1
    70,  'Bus-70  ',  100,  1,    0,     0,     1,  1,  0.951,  -35.15,  1
    71,  'Bus-71  ',  100,  1,    0,     0,     1,  1,  0.979,  -29.87,  1
    72,  'Bus-72  ',  100,  1,    0,     0,     1,  1,  0.969,  -27.47,  1
    73,  'Bus-73  ',  100,  1,    0,     0,     1,  1,  0.977,  -25.76,  1
    74,  'Bus-74  ',  100,  1,    0,     0,     1,  1,  0.996,  -22.00,  1
    76,  'Bus-76  ',  100,  2,    0,     0,     1,  1,  0.963,  -26.54,  1
    77,  'Bus-77  ',  100,  1,    0,     0,     1,  1,  0.983,  -24.94,  1
    78,  'Bus-78  ',  100,  1,    0,     0,     1,  1,  0.990,  -24.05,  1
    79,  'Bus-79  ',  100,  1,    0,     0,     1,  1,  0.982,  -24.97,  1
    80,  'Bus-80  ',  100,  1,    0,     0,     1,  1,  0.987,  -24.97,  1
    81,  'Bus-81  ',  100,  1,    0,     0,     1,  1,  1.034,  -18.88,  1
    84,  'Bus-84  ',  100,  2,    0,     0,     1,  1,  1.025,  -17.16,  1
    85,  'Bus-85  ',  100,  1,    0,     0,     1,  1,  0.987,  -17.67,  1
    86,  'Bus-86  ',  100,  1,    0,     0,     1,  1,  0.990,  -14.18,  1
    87,  'Bus-87  ',  100,  1,    0,     0,     1,  1,  0.992,  -7.765,  1
    88,  'Bus-88  ',  100,  1,    0,     0,     1,  1,  1.015,  -20.95,  1
    89,  'Bus-89  ',  100,  1,    0,     0,     1,  1,  1.031,  -11.13,  1
    90,  'Bus-90  ',  100,  1,    0,     0,     1,  1,  1.027,  -11.22,  1
    91,  'Bus-91  ',  100,  2,    0,     0,     1,  1,  1.052,  -9.402,  1
    92,  'Bus-92  ',  100,  2,    0,     0,     1,  1,  1.052,  -6.198,  1
    94,  'Bus-94  ',  100,  1,    0,     0,     1,  1,  0.993,  -9.419,  1
    97,  'Bus-97  ',  100,  1,    0,     0,     1,  1,  1.018,  -13.23,  1
    98,  'Bus-98  ',  100,  2,    0,     0,     1,  1,  1.000,  -14.60,  1
    99,  'Bus-99  ',  100,  1,    0,     0,     1,  1,  0.989,  -20.26,  1
   100,  'Bus-100 ',  100,  1,    0,     0,     1,  1,  1.006,  -14.44,  1
   102,  'Bus-102 ',  100,  1,    0,     0,     1,  1,  1.000,  -15.23,  1
   103,  'Bus-103 ',  100,  1,    0,     0,     1,  1,  1.028,  -12.06,  1
   104,  'Bus-104 ',  100,  1,    0,     0,     1,  1,  0.995,  -17.32,  1
   105,  'Bus-105 ',  100,  1,    0,     0,     1,  1,  1.022,  -12.94,  1
   107,  'Bus-107 ',  100,  1,    0,     0,     1,  1,  1.009,  -16.02,  1
   108,  'Bus-108 ',  100,  2,    0,     0,     1,  1,  0.990,  -20.25,  1
   109,  'Bus-109 ',  100,  1,    0,     0,     1,  1,  0.974,  -26.06,  1
   110,  'Bus-110 ',  100,  1,    0,     0,     1,  1,  0.973,  -24.72,  1
   112,  'Bus-112 ',  100,  1,    0,     0,     1,  1,  0.972,  -28.69,  1
   113,  'Bus-113 ',  100,  1,    0,     0,     1,  1,  0.970,  -25.38,  1
   114,  'Bus-114 ',  100,  1,    0,     0,     1,  1,  0.974,  -28.58,  1
   115,  'Bus-115 ',  100,  1,    0,     0,     1,  1,  0.960,  -13.57,  1
   116,  'Bus-116 ',  100,  1,    0,     0,     1,  1,  1.024,  -12.68,  1
   117,  'Bus-117 ',  100,  1,    0,     325,   1,  1,  0.934,  -4.720,  1
   118,  'Bus-118 ',  100,  1,    0,     0,     1,  1,  0.929,  -4.123,  1
   119,  'Bus-119 ',  100,  2,    0,     0,     1,  1,  1.043,  5.1658,  1
   120,  'Bus-120 ',  100,  1,    0,     55,    1,  1,  0.958,  -8.770,  1
   121,  'Bus-121 ',  100,  1,    0,     0,     1,  1,  0.987,  -12.63,  1
   122,  'Bus-122 ',  100,  1,    0,     0,     1,  1,  0.972,  -14.36,  1
   123,  'Bus-123 ',  100,  1,    0,     0,     1,  1,  1.000,  -17.63,  1
   124,  'Bus-124 ',  100,  2,    0,     0,     1,  1,  1.023,  -13.48,  1
   125,  'Bus-125 ',  100,  2,    0,     0,     1,  1,  1.010,  -18.42,  1
   126,  'Bus-126 ',  100,  1,    0,     0,     1,  1,  0.997,  -12.86,  1
   127,  'Bus-127 ',  100,  1,    0,     0,     1,  1,  1.000,  -10.52,  1
   128,  'Bus-128 ',  100,  1,    0,     0,     1,  1,  1.002,  -4.777,  1
   129,  'Bus-129 ',  100,  1,    0,     0,     1,  1,  1.002,  -4.398,  1
   130,  'Bus-130 ',  100,  1,    0,     0,     1,  1,  1.019,  5.5584,  1
   131,  'Bus-131 ',  100,  1,    0,     0,     1,  1,  0.986,  6.0552,  1
   132,  'Bus-132 ',  100,  1,    0,     0,     1,  1,  1.004,  3.0442,  1
   133,  'Bus-133 ',  100,  1,    0,     0,     1,  1,  1.002,  -5.460,  1
   134,  'Bus-134 ',  100,  1,    0,     0,     1,  1,  1.022,  -8.044,  1
   135,  'Bus-135 ',  100,  1,    0,     0,     1,  1,  1.019,  -6.755,  1
   136,  'Bus-136 ',  100,  1,    0,     0,     1,  1,  1.047,  1.5407,  1
   137,  'Bus-137 ',  100,  1,    0,     0,     1,  1,  1.047,  -1.454,  1
   138,  'Bus-138 ',  100,  2,    0,     0,     1,  1,  1.055,  -6.353,  1
   139,  'Bus-139 ',  100,  1,    0,     0,     1,  1,  1.011,  -3.568,  1
   140,  'Bus-140 ',  100,  1,    0,     0,     1,  1,  1.043,  -3.435,  1
   141,  'Bus-141 ',  100,  2,    0,     0,     1,  1,  1.051,  0.0495,  1
   142,  'Bus-142 ',  100,  1,    0,     0,     1,  1,  1.015,  -2.768,  1
   143,  'Bus-143 ',  100,  2,    0,     0,     1,  1,  1.043,  4.0331,  1
   144,  'Bus-144 ',  100,  1,    0,     0,     1,  1,  1.016,  -0.695,  1
   145,  'Bus-145 ',  100,  1,    0,     0,     1,  1,  1.008,  -0.156,  1
   146,  'Bus-146 ',  100,  2,    0,     0,     1,  1,  1.052,  4.3212,  1
   147,  'Bus-147 ',  100,  2,    0,     0,     1,  1,  1.052,  8.3635,  1
   148,  'Bus-148 ',  100,  1,    0,     0,     1,  1,  1.057,  0.2778,  1
   149,  'Bus-149 ',  100,  2,    0,     0,     1,  1,  1.073,  5.2293,  1
   150,  'Bus-150 ',  100,  1,    0,     0,     1,  1,  0.986,  6.3363,  1
   151,  'Bus-151 ',  100,  1,    0,     0,     1,  1,  1.004,  4.1310,  1
   152,  'Bus-152 ',  100,  2,    0,     0,     1,  1,  1.053,  9.2416,  1
   153,  'Bus-153 ',  100,  2,    0,     0,     1,  1,  1.043,  10.461,  1
   154,  'Bus-154 ',  100,  1,    0,     34.5,  1,  1,  0.966,  -1.798,  1
   155,  'Bus-155 ',  100,  1,    0,     0,     1,  1,  1.017,  6.7514,  1
   156,  'Bus-156 ',  100,  2,    0,     0,     1,  1,  0.963,  5.1460,  1
   157,  'Bus-157 ',  100,  1,    0,     0,     1,  1,  0.984,  -11.92,  1
   158,  'Bus-158 ',  100,  1,    0,     0,     1,  1,  0.998,  -11.40,  1
   159,  'Bus-159 ',  100,  1,    0,     0,     1,  1,  0.986,  -9.819,  1
   160,  'Bus-160 ',  100,  1,    0,     0,     1,  1,  0.999,  -12.55,  1
   161,  'Bus-161 ',  100,  1,    0,     0,     1,  1,  1.036,  8.8443,  1
   162,  'Bus-162 ',  100,  1,    0,     0,     1,  1,  0.991,  18.500,  1
   163,  'Bus-163 ',  100,  1,    0,     0,     1,  1,  1.041,  2.9065,  1
   164,  'Bus-164 ',  100,  1,    0,     -212,  1,  1,  0.984,  9.6612,  1
   165,  'Bus-165 ',  100,  1,    0,     0,     1,  1,  1.000,  26.307,  1
   166,  'Bus-166 ',  100,  1,    0,     -103,  1,  1,  0.997,  30.219,  1
   167,  'Bus-167 ',  100,  1,    0,     0,     1,  1,  0.971,  -6.906,  1
   168,  'Bus-168 ',  100,  1,    0,     0,     1,  1,  1.002,  -4.800,  1
   169,  'Bus-169 ',  100,  1,    0,     0,     1,  1,  0.987,  -6.677,  1
   170,  'Bus-170 ',  100,  2,    0,     0,     1,  1,  0.928,  0.0878,  1
   171,  'Bus-171 ',  100,  2,    0,     0,     1,  1,  0.982,  -9.935,  1
   172,  'Bus-172 ',  100,  1,    0,     0,     1,  1,  1.024,  -6.223,  1
   173,  'Bus-173 ',  100,  1,    0,     53,    1,  1,  0.983,  -12.75,  1
   174,  'Bus-174 ',  100,  1,    0,     0,     1,  1,  1.062,  -2.690,  1
   175,  'Bus-175 ',  100,  1,    0,     0,     1,  1,  0.973,  -7.207,  1
   176,  'Bus-176 ',  100,  2,    0,     0,     1,  1,  1.052,  4.6644,  1
   177,  'Bus-177 ',  100,  2,    0,     0,     1,  1,  1.007,  0.6186,  1
   178,  'Bus-178 ',  100,  1,    0,     0,     1,  1,  0.939,  -6.564,  1
   179,  'Bus-179 ',  100,  1,    0,     45,    1,  1,  0.969,  -9.364,  1
   180,  'Bus-180 ',  100,  1,    0,     0,     1,  1,  0.979,  -3.092,  1
   181,  'Bus-181 ',  100,  1,    0,     0,     1,  1,  1.051,  -1.325,  1
   182,  'Bus-182 ',  100,  1,    0,     0,     1,  1,  1.044,  -4.188,  1
   183,  'Bus-183 ',  100,  1,    0,     0,     1,  1,  0.971,  7.1225,  1
   184,  'Bus-184 ',  100,  1,    0,     0,     1,  1,  1.038,  -6.846,  1
   185,  'Bus-185 ',  100,  2,    0,     0,     1,  1,  1.052,  -4.331,  1
   186,  'Bus-186 ',  100,  2,    0,     0,     1,  1,  1.065,  2.1718,  1
   187,  'Bus-187 ',  100,  2,    0,     0,     1,  1,  1.065,  1.3964,  1
   188,  'Bus-188 ',  100,  1,    0,     0,     1,  1,  1.053,  -0.723,  1
   189,  'Bus-189 ',  100,  1,    0,     0,     1,  1,  0.997,  -25.84,  1
   190,  'Bus-190 ',  100,  2,    0,     -150,  1,  1,  1.055,  -20.61,  1
   191,  'Bus-191 ',  100,  2,    0,     0,     1,  1,  1.043,  12.248,  1
   192,  'Bus-192 ',  100,  1,    0,     0,     1,  1,  0.937,  -11.18,  1
   193,  'Bus-193 ',  100,  1,    0,     0,     1,  1,  0.989,  -26.09,  1
   194,  'Bus-194 ',  100,  1,    0,     0,     1,  1,  1.048,  -19.21,  1
   195,  'Bus-195 ',  100,  1,    0,     0,     1,  1,  1.035,  -20.78,  1
   196,  'Bus-196 ',  100,  1,    0,     0,     1,  1,  0.969,  -25.31,  1
   197,  'Bus-197 ',  100,  1,    0,     0,     1,  1,  0.990,  -23.71,  1
   198,  'Bus-198 ',  100,  2,    0,     0,     1,  1,  1.015,  -20.58,  1
   199,  'Bus-199 ',  100,  1,    0,     0,     1,  1,  0.952,  -26.04,  1
   200,  'Bus-200 ',  100,  1,    0,     0,     1,  1,  0.955,  -25.93,  1
   201,  'Bus-201 ',  100,  1,    0,     0,     1,  1,  0.969,  -27.48,  1
   202,  'Bus-202 ',  100,  1,    0,     0,     1,  1,  0.990,  -25.33,  1
   203,  'Bus-203 ',  100,  1,    0,     0,     1,  1,  1.003,  -22.35,  1
   204,  'Bus-204 ',  100,  1,    0,     0,     1,  1,  0.971,  -25.70,  1
   205,  'Bus-205 ',  100,  1,    0,     0,     1,  1,  0.983,  -26.06,  1
   206,  'Bus-206 ',  100,  1,    0,     0,     1,  1,  0.999,  -27.41,  1
   207,  'Bus-207 ',  100,  1,    0,     0,     1,  1,  1.013,  -27.44,  1
   208,  'Bus-208 ',  100,  1,    0,     0,     1,  1,  0.992,  -26.27,  1
   209,  'Bus-209 ',  100,  1,    0,     0,     1,  1,  1.000,  -25.65,  1
   210,  'Bus-210 ',  100,  1,    0,     0,     1,  1,  0.978,  -24.22,  1
   211,  'Bus-211 ',  100,  1,    0,     0,     1,  1,  1.001,  -23.31,  1
   212,  'Bus-212 ',  100,  1,    0,     0,     1,  1,  1.013,  -22.50,  1
   213,  'Bus-213 ',  100,  2,    0,     0,     1,  1,  1.010,  -11.67,  1
   214,  'Bus-214 ',  100,  1,    0,     0,     1,  1,  0.991,  -17.53,  1
   215,  'Bus-215 ',  100,  1,    0,     0,     1,  1,  0.986,  -20.23,  1
   216,  'Bus-216 ',  100,  1,    0,     0,     1,  1,  0.975,  -22.52,  1
   217,  'Bus-217 ',  100,  1,    0,     0,     1,  1,  1.021,  -22.19,  1
   218,  'Bus-218 ',  100,  1,    0,     0,     1,  1,  1.007,  -22.62,  1
   219,  'Bus-219 ',  100,  1,    0,     0,     1,  1,  1.055,  -21.14,  1
   220,  'Bus-220 ',  100,  2,    0,     0,     1,  1,  1.008,  -21.72,  1
   221,  'Bus-221 ',  100,  2,    0,     0,     1,  1,  1.000,  -22.48,  1
   222,  'Bus-222 ',  100,  2,    0,     0,     1,  1,  1.050,  -23.16,  1
   223,  'Bus-223 ',  100,  1,    0,     0,     1,  1,  0.996,  -22.69,  1
   224,  'Bus-224 ',  100,  1,    0,     0,     1,  1,  1.000,  -21.55,  1
   225,  'Bus-225 ',  100,  1,    0,     0,     1,  1,  0.945,  -11.34,  1
   226,  'Bus-226 ',  100,  1,    0,     0,     1,  1,  1.018,  -21.60,  1
   227,  'Bus-227 ',  100,  2,    0,     0,     1,  1,  1.000,  -27.21,  1
   228,  'Bus-228 ',  100,  1,    0,     0,     1,  1,  1.042,  -20.93,  1
   229,  'Bus-229 ',  100,  1,    0,     0,     1,  1,  1.049,  -19.94,  1
   230,  'Bus-230 ',  100,  2,    0,     0,     1,  1,  1.040,  -13.82,  1
   231,  'Bus-231 ',  100,  1,    0,     -300,  1,  1,  1.053,  -21.22,  1
   232,  'Bus-232 ',  100,  1,    0,     0,     1,  1,  1.041,  -23.19,  1
   233,  'Bus-233 ',  100,  2,    0,     0,     1,  1,  1.000,  -25.89,  1
   234,  'Bus-234 ',  100,  1,    0,     0,     1,  1,  1.038,  -20.89,  1
   235,  'Bus-235 ',  100,  1,    0,     0,     1,  1,  1.009,  -21.02,  1
   236,  'Bus-236 ',  100,  2,    0,     0,     1,  1,  1.016,  -15.39,  1
   237,  'Bus-237 ',  100,  1,    0,     0,     1,  1,  1.055,  -21.09,  1
   238,  'Bus-238 ',  100,  2,    0,     -150,  1,  1,  1.010,  -20.94,  1
   239,  'Bus-239 ',  100,  2,    0,     0,     1,  1,  1.000,  -15.86,  1
   240,  'Bus-240 ',  100,  1,    0,     -140,  1,  1,  1.023,  -20.13,  1
   241,  'Bus-241 ',  100,  2,    0,     0,     1,  1,  1.050,  -16.50,  1
   242,  'Bus-242 ',  100,  2,    0,     0,     1,  1,  0.993,  -17.52,  1
   243,  'Bus-243 ',  100,  2,    0,     0,     1,  1,  1.010,  -19.27,  1
   244,  'Bus-244 ',  100,  1,    0,     0,     1,  1,  0.992,  -20.21,  1
   245,  'Bus-245 ',  100,  1,    0,     0,     1,  1,  0.971,  -20.89,  1
   246,  'Bus-246 ',  100,  1,    0,     0,     1,  1,  0.965,  -21.74,  1
   247,  'Bus-247 ',  100,  1,    0,     0,     1,  1,  0.968,  -21.66,  1
   248,  'Bus-248 ',  100,  1,    0,     45.6,  1,  1,  0.976,  -25.22,  1
   249,  'Bus-249 ',  100,  1,    0,     0,     1,  1,  0.975,  -25.65,  1
   250,  'Bus-250 ',  100,  1,    0,     0,     1,  1,  1.019,  -23.79,  1
   281,  'Bus-281 ',  100,  1,    0,     0,     1,  1,  1.025,  -20.06,  1
   319,  'Bus-319 ',  100,  1,    0,     0,     1,  1,  1.015,  1.4747,  1
   320,  'Bus-320 ',  100,  1,    0,     0,     1,  1,  1.014,  -2.234,  1
   322,  'Bus-322 ',  100,  1,    0,     0,     1,  1,  1.000,  -17.61,  1
   323,  'Bus-323 ',  100,  1,    0,     0,     1,  1,  0.981,  -13.68,  1
   324,  'Bus-324 ',  100,  1,    0,     0,     1,  1,  0.974,  -23.41,  1
   526,  'Bus-526 ',  100,  1,    0,     0,     1,  1,  0.942,  -34.31,  1
   528,  'Bus-528 ',  100,  1,    0,     0,     1,  1,  0.972,  -37.57,  1
   531,  'Bus-531 ',  100,  1,    0,     0,     1,  1,  0.960,  -29.10,  1
   552,  'Bus-552 ',  100,  1,    0,     0,     1,  1,  1.000,  -23.36,  1
   562,  'Bus-562 ',  100,  1,    0,     0,     1,  1,  0.977,  -28.00,  1
   609,  'Bus-609 ',  100,  1,    0,     0,     1,  1,  0.958,  -28.79,  1
   664,  'Bus-664 ',  100,  1,    0,     0,     1,  1,  1.030,  -17.00,  1
  1190,  'Bus-1190',  100,  1,    0,     0,     1,  1,  1.012,  3.9033,  1
  1200,  'Bus-1200',  100,  1,    0,     0,     1,  1,  1.024,  -7.524,  1
  1201,  'Bus-1201',  100,  1,    0,     0,     1,  1,  1.012,  -15.17,  1
  2040,  'Bus-2040',  100,  1,    0,     0,     1,  1,  0.965,  -14.94,  1
  7001,  'Bus-7001',  100,  2,    0,     0,     1,  1,  1.050,  10.791,  1
  7002,  'Bus-7002',  100,  2,    0,     0,     1,  1,  1.050,  12.483,  1
  7003,  'Bus-7003',  100,  2,    0,     0,     1,  1,  1.032,  13.756,  1
  7011,  'Bus-7011',  100,  2,    0,     0,     1,  1,  1.014,  4.9924,  1
  7012,  'Bus-7012',  100,  2,    0,     0,     1,  1,  1.050,  11.573,  1
  7017,  'Bus-7017',  100,  2,    0,     0,     1,  1,  1.050,  -10.47,  1
  7023,  'Bus-7023',  100,  2,    0,     0,     1,  1,  1.050,  6.1482,  1
  7024,  'Bus-7024',  100,  2,    0,     0,     1,  1,  1.029,  12.595,  1
  7039,  'Bus-7039',  100,  2,    0,     0,     1,  1,  1.050,  2.1085,  1
  7044,  'Bus-7044',  100,  2,    0,     0,     1,  1,  1.014,  -13.91,  1
  7049,  'Bus-7049',  100,  3,    0,     0,     1,  1,  1.050,  0.0000,  1
  7055,  'Bus-7055',  100,  2,    0,     0,     1,  1,  0.996,  -7.501,  1
  7057,  'Bus-7057',  100,  2,    0,     0,     1,  1,  1.021,  -3.443,  1
  7061,  'Bus-7061',  100,  2,    0,     0,     1,  1,  1.014,  1.9677,  1
  7062,  'Bus-7062',  100,  2,    0,     0,     1,  1,  1.001,  5.7955,  1
  7071,  'Bus-7071',  100,  2,    0,     0,     1,  1,  0.989,  -25.34,  1
  7130,  'Bus-7130',  100,  2,    0,     0,     1,  1,  1.050,  19.024,  1
  7139,  'Bus-7139',  100,  2,    0,     0,     1,  1,  1.050,  2.7455,  1
  7166,  'Bus-7166',  100,  2,    0,     0,     1,  1,  1.014,  35.048,  1
  9001,  'Bus-9001',  100,  1,    0,     0,     1,  1,  1.011,  -11.25,  1
  9002,  'Bus-9002',  100,  2,    0,     0,     1,  1,  0.994,  -18.86,  1
  9003,  'Bus-9003',  100,  1,    0.14,  2.4,   1,  1,  0.983,  -19.69,  1
  9004,  'Bus-9004',  100,  1,    0,     0,     1,  1,  0.976,  -19.82,  1
  9005,  'Bus-9005',  100,  1,    0,     0,     1,  1,  1.011,  -11.32,  1
  9006,  'Bus-9006',  100,  1,    0,     0,     1,  1,  1.002,  -17.42,  1
  9007,  'Bus-9007',  100,  1,    0,     0,     1,  1,  0.991,  -18.69,  1
  9012,  'Bus-9012',  100,  1,    0,     0,     1,  1,  1.002,  -17.26,  1
  9021,  'Bus-9021',  100,  1,    0,     0,     1,  1,  0.988,  -19.08,  1
  9022,  'Bus-9022',  100,  1,    0.08,  0,     1,  1,  0.964,  -21.65,  1
  9023,  'Bus-9023',  100,  1,    0,     0,     1,  1,  0.974,  -19.39,  1
  9024,  'Bus-9024',  100,  1,    0.07,  0,     1,  1,  0.970,  -21.42,  1
  9025,  'Bus-9025',  100,  1,    0.02,  0,     1,  1,  0.964,  -20.45,  1
  9026,  'Bus-9026',  100,  1,    0.02,  0,     1,  1,  0.965,  -20.36,  1
  9031,  'Bus-9031',  100,  1,    0.1,   0,     1,  1,  0.931,  -25.03,  1
  9032,  'Bus-9032',  100,  1,    0.07,  0,     1,  1,  0.944,  -23.84,  1
  9033,  'Bus-9033',  100,  1,    0.1,   0,     1,  1,  0.928,  -25.34,  1
  9034,  'Bus-9034',  100,  1,    0.08,  1.72,  1,  1,  0.997,  -21.10,  1
  9035,  'Bus-9035',  100,  1,    0.09,  0,     1,  1,  0.950,  -23.18,  1
  9036,  'Bus-9036',  100,  1,    0,     0,     1,  1,  0.959,  -22.67,  1
  9037,  'Bus-9037',  100,  1,    0.1,   0,     1,  1,  0.956,  -22.59,  1
  9038,  'Bus-9038',  100,  1,    0.14,  0,     1,  1,  0.939,  -24.42,  1
  9041,  'Bus-9041',  100,  1,    0.05,  0,     1,  1,  0.963,  -21.32,  1
  9042,  'Bus-9042',  100,  1,    0.04,  0,     1,  1,  0.950,  -22.49,  1
  9043,  'Bus-9043',  100,  1,    0,     0,     1,  1,  0.964,  -21.43,  1
  9044,  'Bus-9044',  100,  1,    0,     0,     1,  1,  0.978,  -19.78,  1
  9051,  'Bus-9051',  100,  2,    0,     0,     1,  1,  1.000,  -19.39,  1
  9052,  'Bus-9052',  100,  1,    0,     0,     1,  1,  0.978,  -17.24,  1
  9053,  'Bus-9053',  100,  2,    0,     0,     1,  1,  1.000,  -17.68,  1
  9054,  'Bus-9054',  100,  2,    0,     0,     1,  1,  1.000,  -6.827,  1
  9055,  'Bus-9055',  100,  2,    0,     0,     1,  1,  1.000,  -7.538,  1
  9071,  'Bus-9071',  100,  1,    0.05,  0,     1,  1,  0.975,  -20.47,  1
  9072,  'Bus-9072',  100,  1,    0.05,  0,     1,  1,  0.980,  -19.92,  1
  9121,  'Bus-9121',  100,  1,    0,     0,     1,  1,  0.979,  -19.29,  1
  9533,  'Bus-9533',  100,  1,    0.1,   0,     1,  1,  1.040,  -18.19,  1
0 / END OF BUS DATA, BEGIN LOAD DATA
     1,  '1',  1,  1,  1,  90,        49,  0,  0,  0,  0,  1
     2,  '1',  1,  1,  1,  56,        15,  0,  0,  0,  0,  1
     3,  '1',  1,  1,  1,  20,         0,  0,  0,  0,  0,  1
     5,  '1',  1,  1,  1,  353,      130,  0,  0,  0,  0,  1
     6,  '1',  1,  1,  1,  120,       41,  0,  0,  0,  0,  1
     8,  '1',  1,  1,  1,  58,        14,  0,  0,  0,  0,  1
     9,  '1',  1,  1,  1,  96,        43,  0,  0,  0,  0,  1
    10,  '1',  1,  1,  1,  148,       33,  0,  0,  0,  0,  1
    11,  '1',  1,  1,  1,  83,        21,  0,  0,  0,  0,  1
    13,  '1',  1,  1,  1,  58,        10,  0,  0,  0,  0,  1
    14,  '1',  1,  1,  1,  160,       60,  0,  0,  0,  0,  1
    15,  '1',  1,  1,  1,  126.7,     23,  0,  0,  0,  0,  1
    17,  '1',  1,  1,  1,  561,      220,  0,  0,  0,  0,  1
    20,  '1',  1,  1,  1,  595,      120,  0,  0,  0,  0,  1
    21,  '1',  1,  1,  1,  77,         1,  0,  0,  0,  0,  1
    22,  '1',  1,  1,  1,  81,        23,  0,  0,  0,  0,  1
    23,  '1',  1,  1,  1,  21,         7,  0,  0,  0,  0,  1
    25,  '1',  1,  1,  1,  45,        12,  0,  0,  0,  0,  1
    26,  '1',  1,  1,  1,  28,         9,  0,  0,  0,  0,  1
    27,  '1',  1,  1,  1,  69,        13,  0,  0,  0,  0,  1
    33,  '1',  1,  1,  1,  55,         6,  0,  0,  0,  0,  1
    37,  '1',  1,  1,  1,  85,        32,  0,  0,  0,  0,  1
    38,  '1',  1,  1,  1,  155,       18,  0,  0,  0,  0,  1
    40,  '1',  1,  1,  1,  46,       -21,  0,  0,  0,  0,  1
    41,  '1',  1,  1,  1,  86,         0,  0,  0,  0,  0,  1
    43,  '1',  1,  1,  1,  39,         9,  0,  0,  0,  0,  1
    44,  '1',  1,  1,  1,  195,       29,  0,  0,  0,  0,  1
    47,  '1',  1,  1,  1,  58,      11.8,  0,  0,  0,  0,  1
    48,  '1',  1,  1,  1,  41,        19,  0,  0,  0,  0,  1
    49,  '1',  1,  1,  1,  92,        26,  0,  0,  0,  0,  1
    51,  '1',  1,  1,  1,  -5,         5,  0,  0,  0,  0,  1
    52,  '1',  1,  1,  1,  61,        28,  0,  0,  0,  0,  1
    53,  '1',  1,  1,  1,  69,         3,  0,  0,  0,  0,  1
    54,  '1',  1,  1,  1,  10,         1,  0,  0,  0,  0,  1
    55,  '1',  1,  1,  1,  22,        10,  0,  0,  0,  0,  1
    57,  '1',  1,  1,  1,  98,        20,  0,  0,  0,  0,  1
    58,  '1',  1,  1,  1,  14,         1,  0,  0,  0,  0,  1
    59,  '1',  1,  1,  1,  218,      106,  0,  0,  0,  0,  1
    61,  '1',  1,  1,  1,  227,      110,  0,  0,  0,  0,  1
    63,  '1',  1,  1,  1,  70,        30,  0,  0,  0,  0,  1
    70,  '1',  1,  1,  1,  56,        20,  0,  0,  0,  0,  1
    71,  '1',  1,  1,  1,  116,       38,  0,  0,  0,  0,  1
    72,  '1',  1,  1,  1,  57,        19,  0,  0,  0,  0,  1
    73,  '1',  1,  1,  1,  224,       71,  0,  0,  0,  0,  1
    76,  '1',  1,  1,  1,  208,      107,  0,  0,  0,  0,  1
    77,  '1',  1,  1,  1,  74,        28,  0,  0,  0,  0,  1
    79,  '1',  1,  1,  1,  48,        14,  0,  0,  0,  0,  1
    80,  '1',  1,  1,  1,  28,         7,  0,  0,  0,  0,  1
    84,  '1',  1,  1,  1,  37,        13,  0,  0,  0,  0,  1
    89,  '1',  1,  1,  1,  44.2,       0,  0,  0,  0,  0,  1
    90,  '1',  1,  1,  1,  66,         0,  0,  0,  0,  0,  1
    91,  '1',  1,  1,  1,  17.4,       0,  0,  0,  0,  0,  1
    92,  '1',  1,  1,  1,  15.8,       0,  0,  0,  0,  0,  1
    94,  '1',  1,  1,  1,  60.3,       0,  0,  0,  0,  0,  1
    97,  '1',  1,  1,  1,  39.9,       0,  0,  0,  0,  0,  1
    98,  '1',  1,  1,  1,  66.7,       0,  0,  0,  0,  0,  1
    99,  '1',  1,  1,  1,  83.5,       0,  0,  0,  0,  0,  1
   102,  '1',  1,  1,  1,  77.8,       0,  0,  0,  0,  0,  1
   103,  '1',  1,  1,  1,  32,         0,  0,  0,  0,  0,  1
   104,  '1',  1,  1,  1,  8.6,        0,  0,  0,  0,  0,  1
   105,  '1',  1,  1,  1,  49.6,       0,  0,  0,  0,  0,  1
   107,  '1',  1,  1,  1,  4.6,        0,  0,  0,  0,  0,  1
   108,  '1',  1,  1,  1,  112.1,      0,  0,  0,  0,  0,  1
   109,  '1',  1,  1,  1,  30.7,       0,  0,  0,  0,  0,  1
   110,  '1',  1,  1,  1,  63,         0,  0,  0,  0,  0,  1
   112,  '1',  1,  1,  1,  19.6,       0,  0,  0,  0,  0,  1
   113,  '1',  1,  1,  1,  26.2,       0,  0,  0,  0,  0,  1
   114,  '1',  1,  1,  1,  18.2,       0,  0,  0,  0,  0,  1
   118,  '1',  1,  1,  1,  14.1,     650,  0,  0,  0,  0,  1
   120,  '1',  1,  1,  1,  777,      215,  0,  0,  0,  0,  1
   121,  '1',  1,  1,  1,  535,       55,  0,  0,  0,  0,  1
   122,  '1',  1,  1,  1,  229.1,   11.8,  0,  0,  0,  0,  1
   123,  '1',  1,  1,  1,  78,       1.4,  0,  0,  0,  0,  1
   124,  '1',  1,  1,  1,  276.4,   59.3,  0,  0,  0,  0,  1
   125,  '1',  1,  1,  1,  514.8,   82.7,  0,  0,  0,  0,  1
   126,  '1',  1,  1,  1,  57.9,     5.1,  0,  0,  0,  0,  1
   127,  '1',  1,  1,  1,  380.8,     37,  0,  0,  0,  0,  1
   135,  '1',  1,  1,  1,  169.2,   41.6,  0,  0,  0,  0,  1
   136,  '1',  1,  1,  1,  55.2,    18.2,  0,  0,  0,  0,  1
   137,  '1',  1,  1,  1,  273.6,   99.8,  0,  0,  0,  0,  1
   138,  '1',  1,  1,  1,  826.7,  135.2,  0,  0,  0,  0,  1
   139,  '1',  1,  1,  1,  595,     83.3,  0,  0,  0,  0,  1
   140,  '1',  1,  1,  1,  387.7,  114.7,  0,  0,  0,  0,  1
   141,  '1',  1,  1,  1,  145,       58,  0,  0,  0,  0,  1
   142,  '1',  1,  1,  1,  56.5,    24.5,  0,  0,  0,  0,  1
   143,  '1',  1,  1,  1,  89.5,    35.5,  0,  0,  0,  0,  1
   145,  '1',  1,  1,  1,  24,        14,  0,  0,  0,  0,  1
   148,  '1',  1,  1,  1,  63,        25,  0,  0,  0,  0,  1
   152,  '1',  1,  1,  1,  17,         9,  0,  0,  0,  0,  1
   154,  '1',  1,  1,  1,  70,         5,  0,  0,  0,  0,  1
   155,  '1',  1,  1,  1,  200,       50,  0,  0,  0,  0,  1
   156,  '1',  1,  1,  1,  75,        50,  0,  0,  0,  0,  1
   157,  '1',  1,  1,  1,  123.5,  -24.3,  0,  0,  0,  0,  1
   159,  '1',  1,  1,  1,  33,      16.5,  0,  0,  0,  0,  1
   161,  '1',  1,  1,  1,  35,        15,  0,  0,  0,  0,  1
   162,  '1',  1,  1,  1,  85,        24,  0,  0,  0,  0,  1
   163,  '1',  1,  1,  1,  0,        0.4,  0,  0,  0,  0,  1
   167,  '1',  1,  1,  1,  299.9,   95.7,  0,  0,  0,  0,  1
   170,  '1',  1,  1,  1,  481.8,    205,  0,  0,  0,  0,  1
   171,  '1',  1,  1,  1,  763.6,  291.1,  0,  0,  0,  0,  1
   172,  '1',  1,  1,  1,  26.5,       0,  0,  0,  0,  0,  1
   173,  '1',  1,  1,  1,  163.5,     43,  0,  0,  0,  0,  1
   175,  '1',  1,  1,  1,  176,       83,  0,  0,  0,  0,  1
   176,  '1',  1,  1,  1,  5,          4,  0,  0,  0,  0,  1
   177,  '1',  1,  1,  1,  28,        12,  0,  0,  0,  0,  1
   178,  '1',  1,  1,  1,  427.4,  173.6,  0,  0,  0,  0,  1
   179,  '1',  1,  1,  1,  74,        29,  0,  0,  0,  0,  1
   180,  '1',  1,  1,  1,  69.5,    49.3,  0,  0,  0,  0,  1
   181,  '1',  1,  1,  1,  73.4,       0,  0,  0,  0,  0,  1
   182,  '1',  1,  1,  1,  240.7,     89,  0,  0,  0,  0,  1
   183,  '1',  1,  1,  1,  40,         4,  0,  0,  0,  0,  1
   184,  '1',  1,  1,  1,  136.8,   16.6,  0,  0,  0,  0,  1
   186,  '1',  1,  1,  1,  59.8,    24.3,  0,  0,  0,  0,  1
   187,  '1',  1,  1,  1,  59.8,    24.3,  0,  0,  0,  0,  1
   188,  '1',  1,  1,  1,  182.6,   43.6,  0,  0,  0,  0,  1
   189,  '1',  1,  1,  1,  7,          2,  0,  0,  0,  0,  1
   191,  '1',  1,  1,  1,  489,       53,  0,  0,  0,  0,  1
   192,  '1',  1,  1,  1,  800,       72,  0,  0,  0,  0,  1
   196,  '1',  1,  1,  1,  10,         3,  0,  0,  0,  0,  1