 0          /  PSS/E-30.0, TUE, JUN 28 2011   9:00
     1,   1.0500,      0.9500,      1.0500,      0.9500,      1,    1.0000
     2,   1.0500,      0.9500,      1.0500,      0.9500,      1,    1.0000
     3,   1.0500,      0.9500,      1.0500,      0.9500,      1,    1.0000
     4,   1.0500,      0.9500,      1.0500,      0.9500,      1,    1.0000
     5,   1.0500,      0.9500,      1.0500,      0.9500,      1,    1.0000
     6,   1.0500,      0.9500,      1.0500,      0.9500,      1,    1.0000
     7,   1.0500,      0.9500,      1.0500,      0.9500,      1,    1.0000
     8,   1.0500,      0.9500,      1.0500,      0.9500,      1,    1.0000
     9,   1.0500,      0.9500,      1.0500,      0.9500,      1,    1.0000
    10,   1.0500,      0.9500,      1.0500,      0.9500,      1,    1.0000
    11,   1.0500,      0.9500,      1.0500,      0.9500,      1,    1.0000
    12,   1.0500,      0.9500,      1.0500,      0.9500,      1,    1.0000
    13,   1.0500,      0.9500,      1.0500,      0.9500,      1,    1.0000
    14,   1.0500,      0.9500,      1.0500,      0.9500,      1,    1.0000
    15,   1.0500,      0.9500,      1.0500,      0.9500,      1,    1.0000
    16,   1.0500,      0.9500,      1.0500,      0.9500,      1,    1.0000
    17,   1.0500,      0.9500,      1.0500,      0.9500,      1,    1.0000
    18,   1.0500,      0.9500,      1.0500,      0.9500,      1,    1.0000
    19,   1.0500,      0.9500,      1.0500,      0.9500,      1,    1.0000
    20,   1.0500,      0.9500,      1.0500,      0.9500,      1,    1.0000
    21,   1.0500,      0.9500,      1.0500,      0.9500,      1,    1.0000
    22,   1.0500,      0.9500,      1.0500,      0.9500,      1,    1.0000
    23,   1.0500,      0.9500,      1.0500,      0.9500,      1,    1.0000
    24,   1.0500,      0.9500,      1.0500,      0.9500,      1,    1.0000
    25,   1.0500,      0.9500,      1.0500,      0.9500,      1,    1.0000
    26,   1.0500,      0.9500,      1.0500,      0.9500,      1,    1.0000
    27,   1.0500,      0.9500,      1.0500,      0.9500,      1,    1.0000
    28,   1.0500,      0.9500,      1.0500,      0.9500,      1,    1.0000
    29,   1.0500,      0.9500,      1.0500,      0.9500,      1,    1.0000
    30,   1.0500,      0.9500,      1.0500,      0.9500,      1,    1.0000
    31,   1.0500,      0.9500,      1.0500,      0.9500,      1,    1.0000
    32,   1.0500,      0.9500,      1.0500,      0.9500,      1,    1.0000
    33,   1.0500,      0.9500,      1.0500,      0.9500,      1,    1.0000
    34,   1.0500,      0.9500,      1.0500,      0.9500,      1,    1.0000
    35,   1.0500,      0.9500,      1.0500,      0.9500,      1,    1.0000
    36,   1.0500,      0.9500,      1.0500,      0.9500,      1,    1.0000
    37,   1.0500,      0.9500,      1.0500,      0.9500,      1,    1.0000
    38,   1.0500,      0.9500,      1.0500,      0.9500,      1,    1.0000
    39,   1.0500,      0.9500,      1.0500,      0.9500,      1,    1.0000
    40,   1.0500,      0.9500,      1.0500,      0.9500,      1,    1.0000
    41,   1.0500,      0.9500,      1.0500,      0.9500,      1,    1.0000
    42,   1.0500,      0.9500,      1.0500,      0.9500,      1,    1.0000
    43,   1.0500,      0.9500,      1.0500,      0.9500,      1,    1.0000
    44,   1.0500,      0.9500,      1.0500,      0.9500,      1,    1.0000
    45,   1.0500,      0.9500,      1.0500,      0.9500,      1,    1.0000
    46,   1.0500,      0.9500,      1.0500,      0.9500,      1,    1.0000
    47,   1.0500,      0.9500,      1.0500,      0.9500,      1,    1.0000
    48,   1.0500,      0.9500,      1.0500,      0.9500,      1,    1.0000
    49,   1.0500,      0.9500,      1.0500,      0.9500,      1,    1.0000
    50,   1.0500,      0.9500,      1.0500,      0.9500,      1,    1.0000
    51,   1.0500,      0.9500,      1.0500,      0.9500,      1,    1.0000
    52,   1.0500,      0.9500,      1.0500,      0.9500,      1,    1.0000
    53,   1.0500,      0.9500,      1.0500,      0.9500,      1,    1.0000
    54,   1.0500,      0.9500,      1.0500,      0.9500,      1,    1.0000
    55,   1.0500,      0.9500,      1.0500,      0.9500,      1,    1.0000
    56,   1.0500,      0.9500,      1.0500,      0.9500,      1,    1.0000
    57,   1.0500,      0.9500,      1.0500,      0.9500,      1,    1.0000
    58,   1.0500,      0.9500,      1.0500,      0.9500,      1,    1.0000
    59,   1.0500,      0.9500,      1.0500,      0.9500,      1,    1.0000
    60,   1.0500,      0.9500,      1.0500,      0.9500,      1,    1.0000
    61,   1.0500,      0.9500,      1.0500,      0.9500,      1,    1.0000
    62,   1.0500,      0.9500,      1.0500,      0.9500,      1,    1.0000
    63,   1.0500,      0.9500,      1.0500,      0.9500,      1,    1.0000
    64,   1.0500,      0.9500,      1.0500,      0.9500,      1,    1.0000
    65,   1.0500,      0.9500,      1.0500,      0.9500,      1,    1.0000
    66,   1.0500,      0.9500,      1.0500,      0.9500,      1,    1.0000
    67,   1.0500,      0.9500,      1.0500,      0.9500,      1,    1.0000
    68,   1.0500,      0.9500,      1.0500,      0.9500,      1,    1.0000
    69,   1.0500,      0.9500,      1.0500,      0.9500,      1,    1.0000
    70,   1.0500,      0.9500,      1.0500,      0.9500,      1,    1.0000
    71,   1.0500,      0.9500,      1.0500,      0.9500,      1,    1.0000
    72,   1.0500,      0.9500,      1.0500,      0.9500,      1,    1.0000
    73,   1.0500,      0.9500,      1.0500,      0.9500,      1,    1.0000
    74,   1.0500,      0.9500,      1.0500,      0.9500,      1,    1.0000
    75,   1.0500,      0.9500,      1.0500,      0.9500,      1,    1.0000
    76,   1.0500,      0.9500,      1.0500,      0.9500,      1,    1.0000
    77,   1.0500,      0.9500,      1.0500,      0.9500,      1,    1.0000
    78,   1.0500,      0.9500,      1.0500,      0.9500,      1,    1.0000
    79,   1.0500,      0.9500,      1.0500,      0.9500,      1,    1.0000
    80,   1.0500,      0.9500,      1.0500,      0.9500,      1,    1.0000
    81,   1.0500,      0.9500,      1.0500,      0.9500,      1,    1.0000
    82,   1.0500,      0.9500,      1.0500,      0.9500,      1,    1.0000
    83,   1.0500,      0.9500,      1.0500,      0.9500,      1,    1.0000
    84,   1.0500,      0.9500,      1.0500,      0.9500,      1,    1.0000
    85,   1.0500,      0.9500,      1.0500,      0.9500,      1,    1.0000
    86,   1.0500,      0.9500,      1.0500,      0.9500,      1,    1.0000
    87,   1.0500,      0.9500,      1.0500,      0.9500,      1,    1.0000
    88,   1.0500,      0.9500,      1.0500,      0.9500,      1,    1.0000
    89,   1.0500,      0.9500,      1.0500,      0.9500,      1,    1.0000
    90,   1.0500,      0.9500,      1.0500,      0.9500,      1,    1.0000
    91,   1.0500,      0.9500,      1.0500,      0.9500,      1,    1.0000
    92,   1.0500,      0.9500,      1.0500,      0.9500,      1,    1.0000
    93,   1.0500,      0.9500,      1.0500,      0.9500,      1,    1.0000
    94,   1.0500,      0.9500,      1.0500,      0.9500,      1,    1.0000
    95,   1.0500,      0.9500,      1.0500,      0.9500,      1,    1.0000
    96,   1.0500,      0.9500,      1.0500,      0.9500,      1,    1.0000
    97,   1.0500,      0.9500,      1.0500,      0.9500,      1,    1.0000
    98,   1.0500,      0.9500,      1.0500,      0.9500,      1,    1.0000
    99,   1.0500,      0.9500,      1.0500,      0.9500,      1,    1.0000
   100,   1.0500,      0.9500,      1.0500,      0.9500,      1,    1.0000
   101,   1.0500,      0.9500,      1.0500,      0.9500,      1,    1.0000
   102,   1.0500,      0.9500,      1.0500,      0.9500,      1,    1.0000
   103,   1.0500,      0.9500,      1.0500,      0.9500,      1,    1.0000
   104,   1.0500,      0.9500,      1.0500,      0.9500,      1,    1.0000
   105,   1.0500,      0.9500,      1.0500,      0.9500,      1,    1.0000
   106,   1.0500,      0.9500,      1.0500,      0.9500,      1,    1.0000
   107,   1.0500,      0.9500,      1.0500,      0.9500,      1,    1.0000
   108,   1.0500,      0.9500,      1.0500,      0.9500,      1,    1.0000
   109,   1.0500,      0.9500,      1.0500,      0.9500,      1,    1.0000
   110,   1.0500,      0.9500,      1.0500,      0.9500,      1,    1.0000
   111,   1.0500,      0.9500,      1.0500,      0.9500,      1,    1.0000
   112,   1.0500,      0.9500,      1.0500,      0.9500,      1,    1.0000
   113,   1.0500,      0.9500,      1.0500,      0.9500,      1,    1.0000
   114,   1.0500,      0.9500,      1.0500,      0.9500,      1,    1.0000
   115,   1.0500,      0.9500,      1.0500,      0.9500,      1,    1.0000
   116,   1.0500,      0.9500,      1.0500,      0.9500,      1,    1.0000
   117,   1.0500,      0.9500,      1.0500,      0.9500,      1,    1.0000
   118,   1.0500,      0.9500,      1.0500,      0.9500,      1,    1.0000
 0 / End of Bus Voltage Constraint data, begin Adjustable Bus Shunt data
 0 / End of Adjustable Bus Shunt data, begin Bus Load data
 0 / End of Bus Load data, begin Adjustable Bus Load Tables
 0 / End of Adjustable Bus Load Tables, begin Generator Dispatch data
      1,  '1 ',   1.000,    1
      4,  '1 ',   1.000,    2
      6,  '1 ',   1.000,    3
      8,  '1 ',   1.000,    4
     10,  '1 ',   1.000,    5
     12,  '1 ',   1.000,    6
     15,  '1 ',   1.000,    7
     18,  '1 ',   1.000,    8
     19,  '1 ',   1.000,    9
     24,  '1 ',   1.000,   10
     25,  '1 ',   1.000,   11
     26,  '1 ',   1.000,   12
     27,  '1 ',   1.000,   13
     31,  '1 ',   1.000,   14
     32,  '1 ',   1.000,   15
     34,  '1 ',   1.000,   16
     36,  '1 ',   1.000,   17
     40,  '1 ',   1.000,   18
     42,  '1 ',   1.000,   19
     46,  '1 ',   1.000,   20
     49,  '1 ',   1.000,   21
     54,  '1 ',   1.000,   22
     55,  '1 ',   1.000,   23
     56,  '1 ',   1.000,   24
     59,  '1 ',   1.000,   25
     61,  '1 ',   1.000,   26
     62,  '1 ',   1.000,   27
     65,  '1 ',   1.000,   28
     66,  '1 ',   1.000,   29
     69,  '1 ',   1.000,   30
     70,  '1 ',   1.000,   31
     72,  '1 ',   1.000,   32
     73,  '1 ',   1.000,   33
     74,  '1 ',   1.000,   34
     76,  '1 ',   1.000,   35
     77,  '1 ',   1.000,   36
     80,  '1 ',   1.000,   37
     85,  '1 ',   1.000,   38
     87,  '1 ',   1.000,   39
     89,  '1 ',   1.000,   40
     90,  '1 ',   1.000,   41
     91,  '1 ',   1.000,   42
     92,  '1 ',   1.000,   43
     99,  '1 ',   1.000,   44
    100,  '1 ',   1.000,   45
    103,  '1 ',   1.000,   46
    104,  '1 ',   1.000,   47
    105,  '1 ',   1.000,   48
    107,  '1 ',   1.000,   49
    110,  '1 ',   1.000,   50
    111,  '1 ',   1.000,   51
    112,  '1 ',   1.000,   52
    113,  '1 ',   1.000,   53
    116,  '1 ',   1.000,   54
 0 / End of Generator Dispatch data, begin Active Power Dispatch Tables
      1,     300,      5,     1.0000,   1,   1,     1,
      2,     300,      5,     1.0000,   1,   1,     2,
      3,     300,      5,     1.0000,   1,   1,     3,
      4,     300,      5,     1.0000,   1,   1,     4,
      5,    5000,    300,     1.0000,   1,   1,     5,
      6,    1000,      5,     1.0000,   1,   1,     6,
      7,     300,     10,     1.0000,   1,   1,     7,
      8,     300,      5,     1.0000,   1,   1,     8,
      9,     300,      5,     1.0000,   1,   1,     9,
     10,     300,      5,     1.0000,   1,   1,    10,
     11,    3000,    200,     1.0000,   1,   1,    11,
     12,    3000,    200,     1.0000,   1,   1,    12,
     13,     300,      8,     1.0000,   1,   1,    13,
     14,     300,      8,     1.0000,   1,   1,    14,
     15,     300,      8,     1.0000,   1,   1,    15,
     16,     300,      8,     1.0000,   1,   1,    16,
     17,     300,      8,     1.0000,   1,   1,    17,
     18,     300,      8,     1.0000,   1,   1,    18,
     19,     300,      8,     1.0000,   1,   1,    19,
     20,     300,      8,     1.0000,   1,   1,    20,
     21,    2500,    150,     1.0000,   1,   1,    21,
     22,     600,     25,     1.0000,   1,   1,    22,
     23,     300,      5,     1.0000,   1,   1,    23,
     24,     300,      5,     1.0000,   1,   1,    24,
     25,    2000,    100,     1.0000,   1,   1,    25,
     26,    2000,    100,     1.0000,   1,   1,    26,
     27,     300,      5,     1.0000,   1,   1,    27,
     28,    4200,    300,     1.0000,   1,   1,    28,
     29,    4200,    300,     1.0000,   1,   1,    29,
     30,    3000,     80,     1.0000,   1,   1,    30,
     31,     800,     30,     1.0000,   1,   1,    31,
     32,     300,     10,     1.0000,   1,   1,    32,
     33,     300,      5,     1.0000,   1,   1,    33,
     34,     200,      5,     1.0000,   1,   1,    34,
     35,     200,      5,     1.0000,   1,   1,    35,
     36,     200,      5,     1.0000,   1,   1,    36,
     37,    5000,    300,     1.0000,   1,   1,    37,
     38,     300,     10,     1.0000,   1,   1,    38,
     39,     300,     10,     1.0000,   1,   1,    39,
     40,    6500,    450,     1.0000,   1,   1,    40,
     41,     200,      8,     1.0000,   1,   1,    41,
     42,     200,      8,     1.0000,   1,   1,    42,
     43,     500,     20,     1.0000,   1,   1,    43,
     44,     500,     10,     1.0000,   1,   1,    44,
     45,    3000,    150,     1.0000,   1,   1,    45,
     46,     800,     40,     1.0000,   1,   1,    46,
     47,     200,      8,     1.0000,   1,   1,    47,
     48,     200,      8,     1.0000,   1,   1,    48,
     49,     200,      8,     1.0000,   1,   1,    49,
     50,     200,      8,     1.0000,   1,   1,    50,
     51,     500,     25,     1.0000,   1,   1,    51,
     52,     200,      8,     1.0000,   1,   1,    52,
     53,     200,      8,     1.0000,   1,   1,    53,
     54,     200,      8,     1.0000,   1,   1,    54,
 0 / End of Active Power Dispatch Tables, begin Generation Reserve data
 0 / End of Generation Reserve data, begin Generation Reactive Capability data
 0 / End of Generation Reactive Capability data, begin Adjustable Branch Reactance data
 0 / End of Adjustable Branch Reactance data, begin Piece-wise Linear Cost Tables
 0 / End of Piece-wise Linear Cost Tables, begin Piece-wise Quadratic Cost Tables
 0 / End of Piece-wise Quadratic Cost Tables, begin Polynomial Cost Tables
     1,  ' Gen-1   ',   0.00,    100,    1250,     0.000,   0.000
     2,  ' Gen-4   ',   0.00,    100,    1250,     0.000,   0.000
     3,  ' Gen-6   ',   0.00,    100,    1250,     0.000,   0.000
     4,  ' Gen-8   ',   0.00,    100,    1250,     0.000,   0.000
     5,  ' Gen-10  ',   0.00,    200,      75,     0.000,   0.000
     6,  ' Gen-12  ',   0.00,    300,     500,     0.000,   0.000
     7,  ' Gen-15  ',   0.00,    100,    1250,     0.000,   0.000
     8,  ' Gen-18  ',   0.00,    100,    1250,     0.000,   0.000
     9,  ' Gen-19  ',   0.00,    100,    1250,     0.000,   0.000
    10,  ' Gen-24  ',   0.00,    100,    1250,     0.000,   0.000
    11,  ' Gen-25  ',   0.00,    325,   166.8,     0.000,   0.000
    12,  ' Gen-26  ',   0.00,    325,   166.8,     0.000,   0.000
    13,  ' Gen-27  ',   0.00,    100,    1250,     0.000,   0.000
    14,  ' Gen-31  ',   0.00,    100,    1250,     0.000,   0.000
    15,  ' Gen-32  ',   0.00,    100,    1250,     0.000,   0.000
    16,  ' Gen-34  ',   0.00,    100,    1250,     0.000,   0.000
    17,  ' Gen-36  ',   0.00,    100,    1250,     0.000,   0.000
    18,  ' Gen-40  ',   0.00,    100,    1250,     0.000,   0.000
    19,  ' Gen-42  ',   0.00,    100,    1250,     0.000,   0.000
    20,  ' Gen-46  ',   0.00,    100,    1250,     0.000,   0.000
    21,  ' Gen-49  ',   0.00,    325,   166.8,     0.000,   0.000
    22,  ' Gen-54  ',   0.00,    300,     500,     0.000,   0.000
    23,  ' Gen-55  ',   0.00,    100,    1250,     0.000,   0.000
    24,  ' Gen-56  ',   0.00,    100,    1250,     0.000,   0.000
    25,  ' Gen-59  ',   0.00,    175,     350,     0.000,   0.000
    26,  ' Gen-61  ',   0.00,    175,     350,     0.000,   0.000
    27,  ' Gen-62  ',   0.00,    100,    1250,     0.000,   0.000
    28,  ' Gen-65  ',   0.00,    325,   166.8,     0.000,   0.000
    29,  ' Gen-66  ',   0.00,    325,   166.8,     0.000,   0.000
    30,  ' Gen-69  ',   0.00,    300,     500,     0.000,   0.000
    31,  ' Gen-70  ',   0.00,    300,     500,     0.000,   0.000
    32,  ' Gen-72  ',   0.00,    100,    1250,     0.000,   0.000
    33,  ' Gen-73  ',   0.00,    100,    1250,     0.000,   0.000
    34,  ' Gen-74  ',   0.00,    100,    1250,     0.000,   0.000
    35,  ' Gen-76  ',   0.00,    100,    1250,     0.000,   0.000
    36,  ' Gen-77  ',   0.00,    100,    1250,     0.000,   0.000
    37,  ' Gen-80  ',   0.00,    200,      75,     0.000,   0.000
    38,  ' Gen-85  ',   0.00,    100,    1250,     0.000,   0.000
    39,  ' Gen-87  ',   0.00,    100,    1250,     0.000,   0.000
    40,  ' Gen-89  ',   0.00,    200,      75,     0.000,   0.000
    41,  ' Gen-90  ',   0.00,    100,    1250,     0.000,   0.000
    42,  ' Gen-91  ',   0.00,    100,    1250,     0.000,   0.000
    43,  ' Gen-92  ',   0.00,    300,     500,     0.000,   0.000
    44,  ' Gen-99  ',   0.00,    100,    1250,     0.000,   0.000
    45,  ' Gen-100 ',   0.00,    325,   166.8,     0.000,   0.000
    46,  ' Gen-103 ',   0.00,    300,     500,     0.000,   0.000
    47,  ' Gen-104 ',   0.00,    100,    1250,     0.000,   0.000
    48,  ' Gen-105 ',   0.00,    100,    1250,     0.000,   0.000
    49,  ' Gen-107 ',   0.00,    100,    1250,     0.000,   0.000
    50,  ' Gen-110 ',   0.00,    100,    1250,     0.000,   0.000
    51,  ' Gen-111 ',   0.00,    300,     500,     0.000,   0.000
    52,  ' Gen-112 ',   0.00,    100,    1250,     0.000,   0.000
    53,  ' Gen-113 ',   0.00,    100,    1250,     0.000,   0.000
    54,  ' Gen-116 ',   0.00,    100,    1250,     0.000,   0.000
 0 / End of Polynomial Cost Tables, begin Period Reserve data
 0 / End of Period Reserve data, begin Branch Flow Constraint data
 0 / End of Branch Flow Constraint data, begin Interface Flow data
 0 / End of Interface Flow data, begin Linear Constraint Equation Dependency data
 0 / End of Linear Constraint Equation Dependency data, begin 2-terminal dc Line Constraint data
 0 / End of 2-terminal dc Line Constraint data
