 0          /  PSS/E-30.0, TUE, JUN 28 2011   9:00
     1,   1.0500,      0.9500,      1.1000,      0.9000,      1,    1.0000
     2,   1.0500,      0.9500,      1.1000,      0.9000,      1,    1.0000
     3,   1.0500,      0.9500,      1.1000,      0.9000,      1,    1.0000
     4,   1.0500,      0.9500,      1.1000,      0.9000,      1,    1.0000
     5,   1.0500,      0.9500,      1.1000,      0.9000,      1,    1.0000
     6,   1.0500,      0.9500,      1.1000,      0.9000,      1,    1.0000
     7,   1.0500,      0.9500,      1.1000,      0.9000,      1,    1.0000
     8,   1.0500,      0.9500,      1.1000,      0.9000,      1,    1.0000
     9,   1.0500,      0.9500,      1.1000,      0.9000,      1,    1.0000
    10,   1.0500,      0.9500,      1.1000,      0.9000,      1,    1.0000
    11,   1.0500,      0.9500,      1.1000,      0.9000,      1,    1.0000
    12,   1.0500,      0.9500,      1.1000,      0.9000,      1,    1.0000
    13,   1.0500,      0.9500,      1.1000,      0.9000,      1,    1.0000
    14,   1.0500,      0.9500,      1.1000,      0.9000,      1,    1.0000
    15,   1.0500,      0.9500,      1.1000,      0.9000,      1,    1.0000
    16,   1.0500,      0.9500,      1.1000,      0.9000,      1,    1.0000
    17,   1.0500,      0.9500,      1.1000,      0.9000,      1,    1.0000
    18,   1.0500,      0.9500,      1.1000,      0.9000,      1,    1.0000
    19,   1.0500,      0.9500,      1.1000,      0.9000,      1,    1.0000
    20,   1.0500,      0.9500,      1.1000,      0.9000,      1,    1.0000
    21,   1.0500,      0.9500,      1.1000,      0.9000,      1,    1.0000
    22,   1.0500,      0.9500,      1.1000,      0.9000,      1,    1.0000
    23,   1.0500,      0.9500,      1.1000,      0.9000,      1,    1.0000
    24,   1.0500,      0.9500,      1.1000,      0.9000,      1,    1.0000
    25,   1.0500,      0.9500,      1.1000,      0.9000,      1,    1.0000
    26,   1.0500,      0.9500,      1.1000,      0.9000,      1,    1.0000
    27,   1.0500,      0.9500,      1.1000,      0.9000,      1,    1.0000
    28,   1.0500,      0.9500,      1.1000,      0.9000,      1,    1.0000
    29,   1.0500,      0.9500,      1.1000,      0.9000,      1,    1.0000
    30,   1.0500,      0.9500,      1.1000,      0.9000,      1,    1.0000
    31,   1.0500,      0.9500,      1.1000,      0.9000,      1,    1.0000
    32,   1.0500,      0.9500,      1.1000,      0.9000,      1,    1.0000
    33,   1.0500,      0.9500,      1.1000,      0.9000,      1,    1.0000
    34,   1.0500,      0.9500,      1.1000,      0.9000,      1,    1.0000
    35,   1.0500,      0.9500,      1.1000,      0.9000,      1,    1.0000
    36,   1.0500,      0.9500,      1.1000,      0.9000,      1,    1.0000
    37,   1.0500,      0.9500,      1.1000,      0.9000,      1,    1.0000
    38,   1.0500,      0.9500,      1.1000,      0.9000,      1,    1.0000
    39,   1.0500,      0.9500,      1.1000,      0.9000,      1,    1.0000
    40,   1.0500,      0.9500,      1.1000,      0.9000,      1,    1.0000
    41,   1.0500,      0.9500,      1.1000,      0.9000,      1,    1.0000
    42,   1.0500,      0.9500,      1.1000,      0.9000,      1,    1.0000
    43,   1.0500,      0.9500,      1.1000,      0.9000,      1,    1.0000
    44,   1.0500,      0.9500,      1.1000,      0.9000,      1,    1.0000
    45,   1.0500,      0.9500,      1.1000,      0.9000,      1,    1.0000
    46,   1.0500,      0.9500,      1.1000,      0.9000,      1,    1.0000
    47,   1.0500,      0.9500,      1.1000,      0.9000,      1,    1.0000
    48,   1.0500,      0.9500,      1.1000,      0.9000,      1,    1.0000
    49,   1.0500,      0.9500,      1.1000,      0.9000,      1,    1.0000
    50,   1.0500,      0.9500,      1.1000,      0.9000,      1,    1.0000
    51,   1.0500,      0.9500,      1.1000,      0.9000,      1,    1.0000
    52,   1.0500,      0.9500,      1.1000,      0.9000,      1,    1.0000
    53,   1.0500,      0.9500,      1.1000,      0.9000,      1,    1.0000
    54,   1.0500,      0.9500,      1.1000,      0.9000,      1,    1.0000
    55,   1.0500,      0.9500,      1.1000,      0.9000,      1,    1.0000
    56,   1.0500,      0.9500,      1.1000,      0.9000,      1,    1.0000
    57,   1.0500,      0.9500,      1.1000,
 0 / End of Bus Voltage Constraint data, begin Adjustable Bus Shunt data
 0 / End of Adjustable Bus Shunt data, begin Bus Load data
 0 / End of Bus Load data, begin Adjustable Bus Load Tables
 0 / End of Adjustable Bus Load Tables, begin Generator Dispatch data
     1,  '1 ',   1.000,    1
     2,  '1 ',   1.000,    2
     3,  '1 ',   1.000,    3
     6,  '1 ',   1.000,    4
     8,  '1 ',   1.000,    5
     9,  '1 ',   1.000,    6
    12,  '1 ',   1.000,    7
 0 / End of Generator Dispatch data, begin Active Power Dispatch Tables
     1,  500.0,   300.0,   1.0000,   1,   1,    1,
     2,  100.0,    40.0,   1.0000,   1,   1,    2,
     3,  100.0,    40.0,   1.0000,   1,   1,    3,
     4,  400.0,   200.0,   1.0000,   1,   1,    4,
     5,  500.0,   300.0,   1.0000,   1,   1,    5,
     6,  100.0,    40.0,   1.0000,   1,   1,    6,
     7,  200.0,    60.0,   1.0000,   1,   1,    7,
 0 / End of Active Power Dispatch Tables, begin Generation Reserve data
 0 / End of Generation Reserve data, begin Generation Reactive Capability data
 0 / End of Generation Reactive Capability data, begin Adjustable Branch Reactance data
 0 / End of Adjustable Branch Reactance data, begin Piece-wise Linear Cost Tables
 0 / End of Piece-wise Linear Cost Tables, begin Piece-wise Quadratic Cost Tables
 0 / End of Piece-wise Quadratic Cost Tables, begin Polynomial Cost Tables
     1,  ' Gen-1  ',   0.00,    200.00,     75.00,    0.000,   0.000
     2,  ' Gen-2  ',   0.00,    175.00,    350.00,    0.000,   0.000
     3,  ' Gen-3  ',   0.00,    100.00,    1250.0,    0.000,   0.000
     4,  ' Gen-6  ',   0.00,    325.00,    166.80,    0.000,   0.000
     5,  ' Gen-8  ',   0.00,    200.00,     75.00,    0.000,   0.000
     6,  ' Gen-9  ',   0.00,    300.00,    500.00,    0.000,   0.000
     7,  ' Gen-12 ',   0.00,    300.00,    500.00,    0.000,   0.000
 0 / End of Polynomial Cost Tables, begin Period Reserve data
 0 / End of Period Reserve data, begin Branch Flow Constraint data
     2,     1,   '1 ',   '1 ',   800.00,   -800.00,    1000.00,   -1000.00,   1,   1,   1.0000,    0
     3,     2,   '1 ',   '1 ',   800.00,   -800.00,    1000.00,   -1000.00,   1,   1,   1.0000,    0
     4,     3,   '1 ',   '1 ',   800.00,   -800.00,    1000.00,   -1000.00,   1,   1,   1.0000,    0
     5,     4,   '1 ',   '1 ',   800.00,   -800.00,    1000.00,   -1000.00,   1,   1,   1.0000,    0
     6,     4,   '1 ',   '1 ',   800.00,   -800.00,    1000.00,   -1000.00,   1,   1,   1.0000,    0
     7,     6,   '1 ',   '1 ',   800.00,   -800.00,    1000.00,   -1000.00,   1,   1,   1.0000,    0
     8,     6,   '1 ',   '1 ',   800.00,   -800.00,    1000.00,   -1000.00,   1,   1,   1.0000,    0
     9,     8,   '1 ',   '1 ',   800.00,   -800.00,    1000.00,   -1000.00,   1,   1,   1.0000,    0
    10,     9,   '1 ',   '1 ',   800.00,   -800.00,    1000.00,   -1000.00,   1,   1,   1.0000,    0
    11,     9,   '1 ',   '1 ',   800.00,   -800.00,    1000.00,   -1000.00,   1,   1,   1.0000,    0
    12,     9,   '1 ',   '1 ',   800.00,   -800.00,    1000.00,   -1000.00,   1,   1,   1.0000,    0
    13,     9,   '1 ',   '1 ',   800.00,   -800.00,    1000.00,   -1000.00,   1,   1,   1.0000,    0
    14,    13,   '1 ',   '1 ',   800.00,   -800.00,    1000.00,   -1000.00,   1,   1,   1.0000,    0
    15,    13,   '1 ',   '1 ',   800.00,   -800.00,    1000.00,   -1000.00,   1,   1,   1.0000,    0
    15,     1,   '1 ',   '1 ',   800.00,   -800.00,    1000.00,   -1000.00,   1,   1,   1.0000,    0
    16,     1,   '1 ',   '1 ',   800.00,   -800.00,    1000.00,   -1000.00,   1,   1,   1.0000,    0
    17,     1,   '1 ',   '1 ',   800.00,   -800.00,    1000.00,   -1000.00,   1,   1,   1.0000,    0
    15,     3,   '1 ',   '1 ',   800.00,   -800.00,    1000.00,   -1000.00,   1,   1,   1.0000,    0
     6,     5,   '1 ',   '1 ',   800.00,   -800.00,    1000.00,   -1000.00,   1,   1,   1.0000,    0
     8,     7,   '1 ',   '1 ',   800.00,   -800.00,    1000.00,   -1000.00,   1,   1,   1.0000,    0
    12,    10,   '1 ',   '1 ',   800.00,   -800.00,    1000.00,   -1000.00,   1,   1,   1.0000,    0
    13,    11,   '1 ',   '1 ',   800.00,   -800.00,    1000.00,   -1000.00,   1,   1,   1.0000,    0
    13,    12,   '1 ',   '1 ',   800.00,   -800.00,    1000.00,   -1000.00,   1,   1,   1.0000,    0
    16,    12,   '1 ',   '1 ',   800.00,   -800.00,    1000.00,   -1000.00,   1,   1,   1.0000,    0
    17,    12,   '1 ',   '1 ',   800.00,   -800.00,    1000.00,   -1000.00,   1,   1,   1.0000,    0
    15,    14,   '1 ',   '1 ',   800.00,   -800.00,    1000.00,   -1000.00,   1,   1,   1.0000,    0
    19,    18,   '1 ',   '1 ',   800.00,   -800.00,    1000.00,   -1000.00,   1,   1,   1.0000,    0
    20,    19,   '1 ',   '1 ',   800.00,   -800.00,    1000.00,   -1000.00,   1,   1,   1.0000,    0
    22,    21,   '1 ',   '1 ',   800.00,   -800.00,    1000.00,   -1000.00,   1,   1,   1.0000,    0
    23,    22,   '1 ',   '1 ',   800.00,   -800.00,    1000.00,   -1000.00,   1,   1,   1.0000,    0
    24,    23,   '1 ',   '1 ',   800.00,   -800.00,    1000.00,   -1000.00,   1,   1,   1.0000,    0
    27,    26,   '1 ',   '1 ',   800.00,   -800.00,    1000.00,   -1000.00,   1,   1,   1.0000,    0
    28,    27,   '1 ',   '1 ',   800.00,   -800.00,    1000.00,   -1000.00,   1,   1,   1.0000,    0
    29,    28,   '1 ',   '1 ',   800.00,   -800.00,    1000.00,   -1000.00,   1,   1,   1.0000,    0
    30,    25,   '1 ',   '1 ',   800.00,   -800.00,    1000.00,   -1000.00,   1,   1,   1.0000,    0
    31,    30,   '1 ',   '1 ',   800.00,   -800.00,    1000.00,   -1000.00,   1,   1,   1.0000,    0
    32,    31,   '1 ',   '1 ',   800.00,   -800.00,    1000.00,   -1000.00,   1,   1,   1.0000,    0
    33,    32,   '1 ',   '1 ',   800.00,   -800.00,    1000.00,   -1000.00,   1,   1,   1.0000,    0
    35,    34,   '1 ',   '1 ',   800.00,   -800.00,    1000.00,   -1000.00,   1,   1,   1.0000,    0
    36,    35,   '1 ',   '1 ',   800.00,   -800.00,    1000.00,   -1000.00,   1,   1,   1.0000,    0
    37,    36,   '1 ',   '1 ',   800.00,   -800.00,    1000.00,   -1000.00,   1,   1,   1.0000,    0
    38,    37,   '1 ',   '1 ',   800.00,   -800.00,    1000.00,   -1000.00,   1,   1,   1.0000,    0
    39,    37,   '1 ',   '1 ',   800.00,   -800.00,    1000.00,   -1000.00,   1,   1,   1.0000,    0
    40,    36,   '1 ',   '1 ',   800.00,   -800.00,    1000.00,   -1000.00,   1,   1,   1.0000,    0
    38,    22,   '1 ',   '1 ',   800.00,   -800.00,    1000.00,   -1000.00,   1,   1,   1.0000,    0
    42,    41,   '1 ',   '1 ',   800.00,   -800.00,    1000.00,   -1000.00,   1,   1,   1.0000,    0
    43,    41,   '1 ',   '1 ',   800.00,   -800.00,    1000.00,   -1000.00,   1,   1,   1.0000,    0
    44,    38,   '1 ',   '1 ',   800.00,   -800.00,    1000.00,   -1000.00,   1,   1,   1.0000,    0
    47,    46,   '1 ',   '1 ',   800.00,   -800.00,    1000.00,   -1000.00,   1,   1,   1.0000,    0
    48,    47,   '1 ',   '1 ',   800.00,   -800.00,    1000.00,   -1000.00,   1,   1,   1.0000,    0
    49,    48,   '1 ',   '1 ',   800.00,   -800.00,    1000.00,   -1000.00,   1,   1,   1.0000,    0
    50,    49,   '1 ',   '1 ',   800.00,   -800.00,    1000.00,   -1000.00,   1,   1,   1.0000,    0
    51,    50,   '1 ',   '1 ',   800.00,   -800.00,    1000.00,   -1000.00,   1,   1,   1.0000,    0
    52,    29,   '1 ',   '1 ',   800.00,   -800.00,    1000.00,   -1000.00,   1,   1,   1.0000,    0
    53,    52,   '1 ',   '1 ',   800.00,   -800.00,    1000.00,   -1000.00,   1,   1,   1.0000,    0
    54,    53,   '1 ',   '1 ',   800.00,   -800.00,    1000.00,   -1000.00,   1,   1,   1.0000,    0
    55,    54,   '1 ',   '1 ',   800.00,   -800.00,    1000.00,   -1000.00,   1,   1,   1.0000,    0
    45,    44,   '1 ',   '1 ',   800.00,   -800.00,    1000.00,   -1000.00,   1,   1,   1.0000,    0
    41,    56,   '1 ',   '1 ',   800.00,   -800.00,    1000.00,   -1000.00,   1,   1,   1.0000,    0
    42,    56,   '1 ',   '1 ',   800.00,   -800.00,    1000.00,   -1000.00,   1,   1,   1.0000,    0
    56,    57,   '1 ',   '1 ',   800.00,   -800.00,    1000.00,   -1000.00,   1,   1,   1.0000,    0
    49,    38,   '1 ',   '1 ',   800.00,   -800.00,    1000.00,   -1000.00,   1,   1,   1.0000,    0
    48,    38,   '1 ',   '1 ',   800.00,   -800.00,    1000.00,   -1000.00,   1,   1,   1.0000,    0
     4,    18,   '1 ',   '1 ',   800.00,   -800.00,    1000.00,   -1000.00,   1,   1,   1.0000,    0
     4,    18,   '1 ',   '1 ',   800.00,   -800.00,    1000.00,   -1000.00,   1,   1,   1.0000,    0
    21,    20,   '1 ',   '1 ',   800.00,   -800.00,    1000.00,   -1000.00,   1,   1,   1.0000,    0
    24,    25,   '1 ',   '1 ',   800.00,   -800.00,    1000.00,   -1000.00,   1,   1,   1.0000,    0
    24,    25,   '1 ',   '1 ',   800.00,   -800.00,    1000.00,   -1000.00,   1,   1,   1.0000,    0
    24,    26,   '1 ',   '1 ',   800.00,   -800.00,    1000.00,   -1000.00,   1,   1,   1.0000,    0
     7,    29,   '1 ',   '1 ',   800.00,   -800.00,    1000.00,   -1000.00,   1,   1,   1.0000,    0
    34,    32,   '1 ',   '1 ',   800.00,   -800.00,    1000.00,   -1000.00,   1,   1,   1.0000,    0
    11,    41,   '1 ',   '1 ',   800.00,   -800.00,    1000.00,   -1000.00,   1,   1,   1.0000,    0
    15,    45,   '1 ',   '1 ',   800.00,   -800.00,    1000.00,   -1000.00,   1,   1,   1.0000,    0
    14,    46,   '1 ',   '1 ',   800.00,   -800.00,    1000.00,   -1000.00,   1,   1,   1.0000,    0
    10,    51,   '1 ',   '1 ',   800.00,   -800.00,    1000.00,   -1000.00,   1,   1,   1.0000,    0
    13,    49,   '1 ',   '1 ',   800.00,   -800.00,    1000.00,   -1000.00,   1,   1,   1.0000,    0
    11,    43,   '1 ',   '1 ',   800.00,   -800.00,    1000.00,   -1000.00,   1,   1,   1.0000,    0
    40,    56,   '1 ',   '1 ',   800.00,   -800.00,    1000.00,   -1000.00,   1,   1,   1.0000,    0
    39,    57,   '1 ',   '1 ',   800.00,   -800.00,    1000.00,   -1000.00,   1,   1,   1.0000,    0
     9,    55,   '1 ',   '1 ',   800.00,   -800.00,    1000.00,   -1000.00,   1,   1,   1.0000,    0
 0 / End of Branch Flow Constraint data, begin Interface Flow data
 0 / End of Interface Flow data, begin Linear Constraint Equation Dependency data
 0 / End of Linear Constraint Equation Dependency data, begin 2-terminal dc Line Constraint data
 0 / End of 2-terminal dc Line Constraint data
        